ligand
                    3D
 Structure written by MMmdl.
 68 72  0  0  1  0            999 V2000
   15.0320   51.8480   15.6720 O   0  0  0  0  0  0
   15.8800   50.9850   15.4720 C   0  0  3  0  0  0
   16.7410   51.0020   14.4350 N   0  0  0  0  0  0
   17.4490   50.2810   14.4400 H   0  0  0  0  0  0
   16.7410   51.8380   13.2770 C   0  0  3  0  0  0
   17.7600   51.6230   12.3260 C   0  0  3  0  0  0
   15.7720   52.8340   13.0060 C   0  0  3  0  0  0
   15.8220   53.5720   11.8080 C   0  0  1  0  0  0
   17.7920   52.3340   11.1150 C   0  0  3  0  0  0
   18.5290   50.8970   12.5090 H   0  0  0  0  0  0
   14.9770   53.0680   13.6930 H   0  0  0  0  0  0
   14.8970   54.5940   11.6120 N   0  0  0  0  0  0
   16.8180   53.3100   10.8440 C   0  0  3  0  0  0
   18.5670   52.1210   10.3960 H   0  0  0  0  0  0
   15.0210   55.9360   11.8680 C   0  0  3  0  0  0
   14.0410   54.3240   11.1450 H   0  0  0  0  0  0
   16.8530   54.0670    9.5300 C   0  0  0  0  0  0
   16.1670   56.3440   12.4130 N   0  0  0  0  0  0
   13.9710   56.6920   11.5560 N   0  0  0  0  0  0
   17.4550   53.5380    8.7960 H   0  0  0  0  0  0
   15.8520   54.1690    9.1130 H   0  0  0  0  0  0
   17.2680   55.0640    9.6750 H   0  0  0  0  0  0
   14.0550   58.0170   11.8200 C   0  0  3  0  0  0
   16.2660   57.6540   12.6990 C   0  0  3  0  0  0
   12.8880   58.8480   11.4490 C   0  0  3  0  0  0
   15.2250   58.5500   12.4090 C   0  0  3  0  0  0
   17.1790   57.9880   13.1660 H   0  0  0  0  0  0
   12.8280   60.2200   11.7840 C   0  0  3  0  0  0
   11.7910   58.3330   10.7170 C   0  0  3  0  0  0
   15.3450   59.5940   12.6370 H   0  0  0  0  0  0
   11.7440   61.0050   11.3650 C   0  0  3  0  0  0
   13.6110   60.6960   12.3420 H   0  0  0  0  0  0
   10.7350   59.0720   10.3170 N   0  0  0  0  0  0
   11.7520   57.2960   10.4180 H   0  0  0  0  0  0
   10.7260   60.3830   10.6280 C   0  0  2  0  0  0
   11.7030   62.0610   11.5880 H   0  0  0  0  0  0
    9.9040   60.9720   10.2560 H   0  0  0  0  0  0
   15.9750   49.8240   16.4260 C   0  0  2  0  0  0
   14.8580   49.4980   17.2300 C   0  0  3  0  0  0
   17.1660   49.0790   16.5880 C   0  0  3  0  0  0
   14.9330   48.4810   18.1990 C   0  0  3  0  0  0
   13.9300   50.0370   17.1220 H   0  0  0  0  0  0
   17.2360   48.0440   17.5440 C   0  0  2  0  0  0
   18.0420   49.3010   15.9990 H   0  0  0  0  0  0
   16.1280   47.7580   18.3730 C   0  0  3  0  0  0
   14.0720   48.2670   18.8150 H   0  0  0  0  0  0
   18.1590   47.4940   17.6620 H   0  0  0  0  0  0
   16.2060   46.6940   19.4610 C   0  0  0  0  0  0
   17.4600   46.6970   20.2120 N   0  0  0  0  0  0
   16.0700   45.7260   18.9800 H   0  0  0  0  0  0
   15.3660   46.8180   20.1460 H   0  0  0  0  0  0
   17.6730   47.9470   20.9490 C   0  0  0  0  0  0
   17.5270   45.5880   21.1640 C   0  0  0  0  0  0
   19.0280   47.9390   21.6760 C   0  0  0  0  0  0
   16.8670   48.1050   21.6670 H   0  0  0  0  0  0
   17.6470   48.7960   20.2670 H   0  0  0  0  0  0
   18.8810   45.5700   21.9020 C   0  0  0  0  0  0
   17.3850   44.6400   20.6440 H   0  0  0  0  0  0
   16.7140   45.6660   21.8890 H   0  0  0  0  0  0
   19.1130   46.8250   22.6150 N   0  0  0  0  0  0
   19.1600   48.8830   22.2040 H   0  0  0  0  0  0
   19.8360   47.8780   20.9450 H   0  0  0  0  0  0
   18.8970   44.7370   22.6050 H   0  0  0  0  0  0
   19.6840   45.3910   21.1850 H   0  0  0  0  0  0
   20.3700   46.8200   23.3430 C   0  0  0  0  0  0
   20.3870   46.0140   24.0770 H   0  0  0  0  0  0
   21.2160   46.6880   22.6670 H   0  0  0  0  0  0
   20.5020   47.7610   23.8760 H   0  0  0  0  0  0
  1  2  1  0  0  0
  2  3  1  0  0  0
  2 38  1  0  0  0
  3  4  1  0  0  0
  3  5  1  0  0  0
  5  6  1  0  0  0
  5  7  1  0  0  0
  6  9  1  0  0  0
  6 10  1  0  0  0
  7  8  1  0  0  0
  7 11  1  0  0  0
  8 12  1  0  0  0
  8 13  1  0  0  0
  9 13  1  0  0  0
  9 14  1  0  0  0
 12 15  1  0  0  0
 12 16  1  0  0  0
 13 17  1  0  0  0
 15 18  1  0  0  0
 15 19  1  0  0  0
 17 20  1  0  0  0
 17 21  1  0  0  0
 17 22  1  0  0  0
 18 24  1  0  0  0
 19 23  1  0  0  0
 23 25  1  0  0  0
 23 26  1  0  0  0
 24 26  1  0  0  0
 24 27  1  0  0  0
 25 28  1  0  0  0
 25 29  1  0  0  0
 26 30  1  0  0  0
 28 31  1  0  0  0
 28 32  1  0  0  0
 29 33  1  0  0  0
 29 34  1  0  0  0
 31 35  1  0  0  0
 31 36  1  0  0  0
 33 35  1  0  0  0
 35 37  1  0  0  0
 38 39  1  0  0  0
 38 40  1  0  0  0
 39 41  1  0  0  0
 39 42  1  0  0  0
 40 43  1  0  0  0
 40 44  1  0  0  0
 41 45  1  0  0  0
 41 46  1  0  0  0
 43 45  1  0  0  0
 43 47  1  0  0  0
 45 48  1  0  0  0
 48 49  1  0  0  0
 48 50  1  0  0  0
 48 51  1  0  0  0
 49 52  1  0  0  0
 49 53  1  0  0  0
 52 54  1  0  0  0
 52 55  1  0  0  0
 52 56  1  0  0  0
 53 57  1  0  0  0
 53 58  1  0  0  0
 53 59  1  0  0  0
 54 60  1  0  0  0
 54 61  1  0  0  0
 54 62  1  0  0  0
 57 60  1  0  0  0
 57 63  1  0  0  0
 57 64  1  0  0  0
 60 65  1  0  0  0
 65 66  1  0  0  0
 65 67  1  0  0  0
 65 68  1  0  0  0
M  END
> <s_m_entry_id>
3

> <s_m_entry_name>
Native.1_mol2

$$$$
